src/ieee38_dc_sol.raw
0, 100, 33, 0, 0, 60  / 10-May-2022 10:44:53 - MATPOWER 7.1


     1, '1           ',         1, 1,    1,    1, 1,           1, -5.71393078,  1.1,  0.9,  1.1,  0.9
     2, '2           ',         1, 1,    1,    1, 1,           1, -3.44853822,  1.1,  0.9,  1.1,  0.9
     3, '3           ',         1, 1,    1,    1, 1,           1, -6.90103095,  1.1,  0.9,  1.1,  0.9
     4, '4           ',         1, 1,    1,    1, 1,           1, -8.24092249,  1.1,  0.9,  1.1,  0.9
     5, '5           ',         1, 1,    1,    1, 1,           1, -7.30367153,  1.1,  0.9,  1.1,  0.9
     6, '6           ',         1, 1,    1,    1, 1,           1, -6.69797575,  1.1,  0.9,  1.1,  0.9
     7, '7           ',         1, 1,    1,    1, 1,           1, -8.70528032,  1.1,  0.9,  1.1,  0.9
     8, '8           ',         1, 1,    1,    1, 1,           1, -9.09272796,  1.1,  0.9,  1.1,  0.9
     9, '9           ',         1, 1,    1,    1, 1,           1, -7.09190679,  1.1,  0.9,  1.1,  0.9
    10, '10          ',         1, 1,    1,    1, 1,           1, -4.04193867,  1.1,  0.9,  1.1,  0.9
    11, '11          ',         1, 1,    1,    1, 1,           1, -4.95446828,  1.1,  0.9,  1.1,  0.9
    12, '12          ',         1, 1,    1,    1, 1,           1, -4.93667171,  1.1,  0.9,  1.1,  0.9
    13, '13          ',         1, 1,    1,    1, 1,           1, -4.73082611,  1.1,  0.9,  1.1,  0.9
    14, '14          ',         1, 1,    1,    1, 1,           1, -6.30140157,  1.1,  0.9,  1.1,  0.9
    15, '15          ',         1, 1,    1,    1, 1,           1, -6.41320129,  1.1,  0.9,  1.1,  0.9
    16, '16          ',         1, 1,    1,    1, 1,           1, -4.73817361,  1.1,  0.9,  1.1,  0.9
    17, '17          ',         1, 1,    1,    1, 1,           1, -5.75544825,  1.1,  0.9,  1.1,  0.9
    18, '18          ',         1, 1,    1,    1, 1,           1, -6.65157332,  1.1,  0.9,  1.1,  0.9
    19, '19          ',         1, 1,    1,    1, 1,           1,  0.40125781,  1.1,  0.9,  1.1,  0.9
    20, '20          ',         1, 1,    1,    1, 1,           1, -1.04031317,  1.1,  0.9,  1.1,  0.9
    21, '21          ',         1, 1,    1,    1, 1,           1, -2.14870639,  1.1,  0.9,  1.1,  0.9
    22, '22          ',         1, 1,    1,    1, 1,           1,  2.73453312,  1.1,  0.9,  1.1,  0.9
    23, '23          ',         1, 1,    1,    1, 1,           1,  2.50778358,  1.1,  0.9,  1.1,  0.9
    24, '24          ',         1, 1,    1,    1, 1,           1, -4.58563336,  1.1,  0.9,  1.1,  0.9
    25, '25          ',         1, 1,    1,    1, 1,           1, -2.24005337,  1.1,  0.9,  1.1,  0.9
    26, '26          ',         1, 1,    1,    1, 1,           1, -3.54927472,  1.1,  0.9,  1.1,  0.9
    27, '27          ',         1, 1,    1,    1, 1,           1, -5.84224193,  1.1,  0.9,  1.1,  0.9
    28, '28          ',         1, 1,    1,    1, 1,           1, 0.398582385,  1.1,  0.9,  1.1,  0.9
    29, '29          ',         1, 1,    1,    1, 1,           1,  3.43847558,  1.1,  0.9,  1.1,  0.9
    30, '30          ',         1, 2,    1,    1, 1,           1, -0.791088346,  1.1,  0.9,  1.1,  0.9
    31, '31          ',         1, 3,    1,    1, 1,           1,     -1.5868,  1.1,  0.9,  1.1,  0.9
    32, '32          ',         1, 2,    1,    1, 1,           1,  3.92790426,  1.1,  0.9,  1.1,  0.9
    33, '33          ',         1, 2,    1,    1, 1,           1,  5.90314692,  1.1,  0.9,  1.1,  0.9
    34, '34          ',         1, 2,    1,    1, 1,           1,  4.24596504,  1.1,  0.9,  1.1,  0.9
    35, '35          ',         1, 2,    1,    1, 1,           1,  8.19331689,  1.1,  0.9,  1.1,  0.9
    36, '36          ',         1, 2,    1,    1, 1,           1,  11.2350767,  1.1,  0.9,  1.1,  0.9
    37, '37          ',         1, 2,    1,    1, 1,           1,  5.11741227,  1.1,  0.9,  1.1,  0.9
    38, '38          ',         1, 2,    1,    1, 1,           1,  11.0425996,  1.1,  0.9,  1.1,  0.9
0 / END OF BUS DATA, BEGIN LOAD DATA
     3,  1, 1,    1,    1,       322,       2.4, 0, 0, 0, 0, 1, 1, 0
     4,  1, 1,    1,    1,       500,       184, 0, 0, 0, 0, 1, 1, 0
     7,  1, 1,    1,    1,     233.8,        84, 0, 0, 0, 0, 1, 1, 0
     8,  1, 1,    1,    1,       522,       176, 0, 0, 0, 0, 1, 1, 0
    12,  1, 1,    1,    1,       7.5,        88, 0, 0, 0, 0, 1, 1, 0
    15,  1, 1,    1,    1,       320,       153, 0, 0, 0, 0, 1, 1, 0
    16,  1, 1,    1,    1,     329.4,      32.3, 0, 0, 0, 0, 1, 1, 0
    18,  1, 1,    1,    1,       158,        30, 0, 0, 0, 0, 1, 1, 0
    20,  1, 1,    1,    1,       680,       103, 0, 0, 0, 0, 1, 1, 0
    21,  1, 1,    1,    1,       274,       115, 0, 0, 0, 0, 1, 1, 0
    23,  1, 1,    1,    1,     247.5,      84.6, 0, 0, 0, 0, 1, 1, 0
    24,  1, 1,    1,    1,     308.6,     -92.2, 0, 0, 0, 0, 1, 1, 0
    25,  1, 1,    1,    1,       224,      47.2, 0, 0, 0, 0, 1, 1, 0
    26,  1, 1,    1,    1,       139,        17, 0, 0, 0, 0, 1, 1, 0
    27,  1, 1,    1,    1,       281,      75.5, 0, 0, 0, 0, 1, 1, 0
    28,  1, 1,    1,    1,       206,      27.6, 0, 0, 0, 0, 1, 1, 0
    29,  1, 1,    1,    1,     283.5,      26.9, 0, 0, 0, 0, 1, 1, 0
    31,  1, 1,    1,    1,       9.2,       4.6, 0, 0, 0, 0, 1, 1, 0
0 / END OF LOAD DATA, BEGIN FIXED SHUNT DATA
     4, 1, 1,       0,     100
     5, 1, 1,       0,     200
0 / END OF FIXED SHUNT DATA, BEGIN GENERATOR DATA
    30,  1,       250,    83.211,       800,      -500,   1.0475, 0,     100, 0, 1, 0, 0, 1, 1, 100,    400.0,         0, 1, 1, 0, 1, 0, 1, 0, 1, 0, 1
    31,  1,     425.5,   363.936,       800,      -500,    0.982, 0,     100, 0, 1, 0, 0, 1, 1, 100,    600.0,         0, 1, 1, 0, 1, 0, 1, 0, 1, 0, 1
    32,  1,       650,     1.533,       800,      -500,   0.9831, 0,     100, 0, 1, 0, 0, 1, 1, 100,    800.0,         0, 1, 1, 0, 1, 0, 1, 0, 1, 0, 1
    33,  1,       632,    69.667,       800,      -500,   0.9972, 0,     100, 0, 1, 0, 0, 1, 1, 100,    800.0,         0, 1, 1, 0, 1, 0, 1, 0, 1, 0, 1
    34,  1,       508,    148.79,       800,      -300,   1.0123, 0,     100, 0, 1, 0, 0, 1, 1, 100,    800.0,         0, 1, 1, 0, 1, 0, 1, 0, 1, 0, 1
    35,  1,       650,   167.043,       800,      -500,   1.0493, 0,     100, 0, 1, 0, 0, 1, 1, 100,    750.0,         0, 1, 1, 0, 1, 0, 1, 0, 1, 0, 1
    36,  1,       560,    75.449,       800,      -500,   1.0635, 0,     100, 0, 1, 0, 0, 1, 1, 100,    750.0,         0, 1, 1, 0, 1, 0, 1, 0, 1, 0, 1
    37,  1,       540,   -35.347,       800,      -500,   1.0278, 0,     100, 0, 1, 0, 0, 1, 1, 100,    900.0,         0, 1, 1, 0, 1, 0, 1, 0, 1, 0, 1
    38,  1,       830,    -0.473,       800,      -500,   1.0265, 0,     100, 0, 1, 0, 0, 1, 1, 100,    950.0,         0, 1, 1, 0, 1, 0, 1, 0, 1, 0, 1
0 / END OF GENERATOR DATA, BEGIN BRANCH DATA
     1,      2, 1,   0.0035,   0.0411,   0.6987,       0,       0,       1, 0, 0, 0, 0, 1, 1, 0, 1, 1, 0, 1, 0, 1, 0, 1
     1,      9, 1,    0.001,    0.025,     0.75,       0,       0,       1, 0, 0, 0, 0, 1, 1, 0, 1, 1, 0, 1, 0, 1, 0, 1
     2,      3, 1,   0.0013,   0.0151,   0.2572,       0,       0,       1, 0, 0, 0, 0, 1, 1, 0, 1, 1, 0, 1, 0, 1, 0, 1
     2,     25, 1,    0.007,   0.0086,    0.146,       0,       0,       1, 0, 0, 0, 0, 1, 1, 0, 1, 1, 0, 1, 0, 1, 0, 1
     3,      4, 1,   0.0013,   0.0213,   0.2214,       0,       0,       1, 0, 0, 0, 0, 1, 1, 0, 1, 1, 0, 1, 0, 1, 0, 1
     3,     18, 1,   0.0011,   0.0133,   0.2138,       0,       0,       1, 0, 0, 0, 0, 1, 1, 0, 1, 1, 0, 1, 0, 1, 0, 1
     4,      5, 1,   0.0008,   0.0128,   0.1342,       0,       0,       1, 0, 0, 0, 0, 1, 1, 0, 1, 1, 0, 1, 0, 1, 0, 1
     4,     14, 1,   0.0008,   0.0129,   0.1382,       0,       0,       1, 0, 0, 0, 0, 1, 1, 0, 1, 1, 0, 1, 0, 1, 0, 1
     5,      6, 1,   0.0002,   0.0026,   0.0434,       0,       0,       1, 0, 0, 0, 0, 1, 1, 0, 1, 1, 0, 1, 0, 1, 0, 1
     5,      8, 1,   0.0008,   0.0112,   0.1476,       0,       0,       1, 0, 0, 0, 0, 1, 1, 0, 1, 1, 0, 1, 0, 1, 0, 1
     6,      7, 1,   0.0006,   0.0092,    0.113,       0,       0,       1, 0, 0, 0, 0, 1, 1, 0, 1, 1, 0, 1, 0, 1, 0, 1
     6,     11, 1,   0.0007,   0.0082,   0.1389,       0,       0,       1, 0, 0, 0, 0, 1, 1, 0, 1, 1, 0, 1, 0, 1, 0, 1
     7,      8, 1,   0.0004,   0.0046,    0.078,       0,       0,       1, 0, 0, 0, 0, 1, 1, 0, 1, 1, 0, 1, 0, 1, 0, 1
     8,      9, 1,   0.0023,   0.0363,   0.3804,       0,       0,       1, 0, 0, 0, 0, 1, 1, 0, 1, 1, 0, 1, 0, 1, 0, 1
    10,     11, 1,   0.0004,   0.0043,   0.0729,       0,       0,       1, 0, 0, 0, 0, 1, 1, 0, 1, 1, 0, 1, 0, 1, 0, 1
    10,     13, 1,   0.0004,   0.0043,   0.0729,       0,       0,       1, 0, 0, 0, 0, 1, 1, 0, 1, 1, 0, 1, 0, 1, 0, 1
    13,     14, 1,   0.0009,   0.0101,   0.1723,       0,       0,       1, 0, 0, 0, 0, 1, 1, 0, 1, 1, 0, 1, 0, 1, 0, 1
    14,     15, 1,   0.0018,   0.0217,    0.366,       0,       0,       1, 0, 0, 0, 0, 1, 1, 0, 1, 1, 0, 1, 0, 1, 0, 1
    15,     16, 1,   0.0009,   0.0094,    0.171,       0,       0,       1, 0, 0, 0, 0, 1, 1, 0, 1, 1, 0, 1, 0, 1, 0, 1
    16,     17, 1,   0.0007,   0.0089,   0.1342,       0,       0,       1, 0, 0, 0, 0, 1, 1, 0, 1, 1, 0, 1, 0, 1, 0, 1
    16,     19, 1,   0.0016,   0.0195,    0.304,       0,       0,       1, 0, 0, 0, 0, 1, 1, 0, 1, 1, 0, 1, 0, 1, 0, 1
    16,     21, 1,   0.0008,   0.0135,   0.2548,       0,       0,       1, 0, 0, 0, 0, 1, 1, 0, 1, 1, 0, 1, 0, 1, 0, 1
    16,     24, 1,   0.0003,   0.0059,    0.068,       0,       0,       1, 0, 0, 0, 0, 1, 1, 0, 1, 1, 0, 1, 0, 1, 0, 1
    17,     18, 1,   0.0007,   0.0082,   0.1319,       0,       0,       1, 0, 0, 0, 0, 1, 1, 0, 1, 1, 0, 1, 0, 1, 0, 1
    17,     27, 1,   0.0013,   0.0173,   0.3216,       0,       0,       1, 0, 0, 0, 0, 1, 1, 0, 1, 1, 0, 1, 0, 1, 0, 1
    21,     22, 1,   0.0008,    0.014,   0.2565,       0,       0,       1, 0, 0, 0, 0, 1, 1, 0, 1, 1, 0, 1, 0, 1, 0, 1
    22,     23, 1,   0.0006,   0.0096,   0.1846,       0,       0,       1, 0, 0, 0, 0, 1, 1, 0, 1, 1, 0, 1, 0, 1, 0, 1
    23,     24, 1,   0.0022,    0.035,    0.361,       0,       0,       1, 0, 0, 0, 0, 1, 1, 0, 1, 1, 0, 1, 0, 1, 0, 1
    25,     26, 1,   0.0032,   0.0323,    0.513,       0,       0,       1, 0, 0, 0, 0, 1, 1, 0, 1, 1, 0, 1, 0, 1, 0, 1
    26,     27, 1,   0.0014,   0.0147,   0.2396,       0,       0,       1, 0, 0, 0, 0, 1, 1, 0, 1, 1, 0, 1, 0, 1, 0, 1
    26,     28, 1,   0.0043,   0.0474,   0.7802,       0,       0,       1, 0, 0, 0, 0, 1, 1, 0, 1, 1, 0, 1, 0, 1, 0, 1
    26,     29, 1,   0.0057,   0.0625,    1.029,       0,       0,       1, 0, 0, 0, 0, 1, 1, 0, 1, 1, 0, 1, 0, 1, 0, 1
    28,     29, 1,   0.0014,   0.0151,    0.249,       0,       0,       1, 0, 0, 0, 0, 1, 1, 0, 1, 1, 0, 1, 0, 1, 0, 1
0 / END OF BRANCH DATA, BEGIN TRANSFORMER DATA
     2,     30, 0, 1, 1, 1, 1, 0, 0, 2, '            ', 1, 1, 1, 0, 1, 0, 1, 0, 1, '            '
0, 0.0181, 100
1.025, 0,     0,       0,       0,       0, 0, 0, 1.1, 0.9, 1.1, 0.9, 33, 0, 0, 0, 0
    1, 0
    31,      6, 0, 1, 1, 1, 1, 0, 0, 2, '            ', 1, 1, 1, 0, 1, 0, 1, 0, 1, '            '
0, 0.025, 100
0.85714, 0,     0,       0,       0,       0, 0, 0, 1.1, 0.9, 1.1, 0.9, 33, 0, 0, 0, 0
    1, 0
    10,     32, 0, 1, 1, 1, 1, 0, 0, 2, '            ', 1, 1, 1, 0, 1, 0, 1, 0, 1, '            '
0, 0.02, 100
 1.07, 0,     0,       0,       0,       0, 0, 0, 1.1, 0.9, 1.1, 0.9, 33, 0, 0, 0, 0
    1, 0
    12,     11, 0, 1, 1, 1, 1, 0, 0, 2, '            ', 1, 1, 1, 0, 1, 0, 1, 0, 1, '            '
0.0016, 0.0435, 100
1.006, 0,     0,       0,       0,       0, 0, 0, 1.1, 0.9, 1.1, 0.9, 33, 0, 0, 0, 0
    1, 0
    12,     13, 0, 1, 1, 1, 1, 0, 0, 2, '            ', 1, 1, 1, 0, 1, 0, 1, 0, 1, '            '
0.0016, 0.0435, 100
1.006, 0,     0,       0,       0,       0, 0, 0, 1.1, 0.9, 1.1, 0.9, 33, 0, 0, 0, 0
    1, 0
    19,     20, 0, 1, 1, 1, 1, 0, 0, 2, '            ', 1, 1, 1, 0, 1, 0, 1, 0, 1, '            '
0.0007, 0.0138, 100
 1.06, 0,     0,       0,       0,       0, 0, 0, 1.1, 0.9, 1.1, 0.9, 33, 0, 0, 0, 0
    1, 0
    19,     33, 0, 1, 1, 1, 1, 0, 0, 2, '            ', 1, 1, 1, 0, 1, 0, 1, 0, 1, '            '
0.0007, 0.0142, 100
 1.07, 0,     0,       0,       0,       0, 0, 0, 1.1, 0.9, 1.1, 0.9, 33, 0, 0, 0, 0
    1, 0
    20,     34, 0, 1, 1, 1, 1, 0, 0, 2, '            ', 1, 1, 1, 0, 1, 0, 1, 0, 1, '            '
0.0009, 0.018, 100
1.009, 0,     0,       0,       0,       0, 0, 0, 1.1, 0.9, 1.1, 0.9, 33, 0, 0, 0, 0
    1, 0
    22,     35, 0, 1, 1, 1, 1, 0, 0, 2, '            ', 1, 1, 1, 0, 1, 0, 1, 0, 1, '            '
0, 0.0143, 100
1.025, 0,     0,       0,       0,       0, 0, 0, 1.1, 0.9, 1.1, 0.9, 33, 0, 0, 0, 0
    1, 0
    23,     36, 0, 1, 1, 1, 1, 0, 0, 2, '            ', 1, 1, 1, 0, 1, 0, 1, 0, 1, '            '
0.0005, 0.0272, 100
    1, 0,     0,       0,       0,       0, 0, 0, 1.1, 0.9, 1.1, 0.9, 33, 0, 0, 0, 0
    1, 0
    25,     37, 0, 1, 1, 1, 1, 0, 0, 2, '            ', 1, 1, 1, 0, 1, 0, 1, 0, 1, '            '
0.0006, 0.0232, 100
1.025, 0,     0,       0,       0,       0, 0, 0, 1.1, 0.9, 1.1, 0.9, 33, 0, 0, 0, 0
    1, 0
    29,     38, 0, 1, 1, 1, 1, 0, 0, 2, '            ', 1, 1, 1, 0, 1, 0, 1, 0, 1, '            '
0.0008, 0.0156, 100
1.025, 0,     0,       0,       0,       0, 0, 0, 1.1, 0.9, 1.1, 0.9, 33, 0, 0, 0, 0
    1, 0
0 / END OF TRANSFORMER DATA, BEGIN AREA DATA
0 / END OF AREA DATA, BEGIN TWO-TERMINAL DC DATA
0 / END OF TWO-TERMINAL DC DATA, BEGIN VOLTAGE SOURCE CONVERTER DATA
0 / END OF VOLTAGE SOURCE CONVERTER DATA, BEGIN IMPEDANCE CORRECTION DATA
0 / END OF IMPEDANCE CORRECTION DATA, BEGIN MULTI-TERMINAL DC DATA
0 / END OF MULTI-TERMINAL DC DATA, BEGIN MULTI-SECTION LINE DATA
0 / END OF MULTI-SECTION LINE DATA, BEGIN ZONE DATA
0 / END OF ZONE DATA, BEGIN INTER-AREA TRANSFER DATA
0 / END OF INTER-AREA TRANSFER DATA, BEGIN OWNER DATA
0 / END OF OWNER DATA, BEGIN FACTS CONTROL DEVICE DATA
0 / END OF FACTS CONTROL DEVICE DATA, BEGIN SWITCHED SHUNT DATA
0 / END OF SWITCHED SHUNT DATA, BEGIN GNE DEVICE DATA
0 / END OF GNE DEVICE DATA, BEGIN INDUCTION MACHINE DATA
0 / END OF INDUCTION MACHINE DATA
Q
